OPT_V9/My_campus_w_initial_sub_3_active_25_03_11_44/powerflow_results_t6.txt
Pandapower Network Debug Info
==================================================

BUS:
       vm_pu  va_degree      p_mw    q_mvar
0   0.998762   0.073515 -0.000606 -0.000551
1   0.998227   0.103959 -0.000399 -0.000032
2   0.997027   0.136063  0.000524  0.001025
3   0.996978   0.146656  0.000732  0.002475
4   0.993074   0.236685  0.001587  0.004097
5   0.996742   0.167523  0.000936  0.004981
6   0.997475   0.142004 -0.000276 -0.000724
7   0.999358   0.027208  0.000113  0.000775
8   0.998939   0.035704 -0.000069  0.000646
9   0.999913   0.000750  0.008650  0.008247
10  0.999902   0.000827  0.009117  0.007729
11  0.999894   0.000917  0.009176  0.010388
12  0.999839   0.000534  0.009875  0.004646
13  0.999825   0.000528  0.008757  0.006347
14  0.999815   0.000483  0.013349  0.008787
15  0.999950   0.000513  0.000000  0.000000
16  0.999950   0.000515  0.000000  0.000000
17  0.999843   0.000594  0.000000  0.000000
18  0.999843   0.000600  0.000000  0.000000
19  1.000000   0.000000 -0.027229 -0.034292
20  1.000000   0.000005  0.000000  0.000000
21  1.000000   0.000000 -0.034342 -0.034593
22  1.000000   0.000005  0.000000  0.000000
--------------------------------------------------

LINE:
    p_from_mw  q_from_mvar   p_to_mw  q_to_mvar         pl_mw       ql_mvar  i_from_ka   i_to_ka      i_ka  vm_from_pu  va_from_degree  vm_to_pu  va_to_degree  loading_percent
0    0.027219     0.030292 -0.027217  -0.030291  1.622184e-06  1.264844e-06   0.001567  0.001567  0.001567    1.000000        0.000005  0.999950      0.000513         0.681509
1    0.034332     0.030593 -0.034326  -0.030589  5.688043e-06  4.435061e-06   0.001770  0.001770  0.001770    1.000000        0.000005  0.999843      0.000594         0.769549
2    0.026945     0.026366 -0.026944  -0.026365  1.099080e-06  8.569705e-07   0.001451  0.001451  0.001451    0.999950        0.000513  0.999913      0.000750         0.630908
3    0.009875     0.004646 -0.009875  -0.004646  4.120341e-08  3.212698e-08   0.000420  0.000420  0.000420    0.999843        0.000594  0.999839      0.000534         0.182667
4    0.022106     0.015135 -0.022106  -0.015134  3.925833e-07  3.061037e-07   0.001031  0.001031  0.001031    0.999843        0.000594  0.999825      0.000528         0.448409
5    0.000262     0.002925 -0.000258  -0.002922  4.034101e-06  3.145455e-06   0.004239  0.004239  0.004239    0.999950        0.000515  0.998762      0.073515         1.843027
6    0.000675     0.004268 -0.000660  -0.004257  1.449310e-05  1.130051e-05   0.006239  0.006239  0.006239    0.999843        0.000600  0.996742      0.167523         2.712392
7    0.000114     0.000775 -0.000113  -0.000775  4.149741e-07  3.235621e-07   0.001131  0.001131  0.001131    0.999843        0.000600  0.999358      0.027208         0.491830
8    0.001546     0.004765 -0.001542  -0.004761  4.315640e-06  3.364976e-06   0.007231  0.007231  0.007231    0.999843        0.000600  0.998939      0.035704         3.144046
9   -0.018293    -0.018118  0.018293   0.018118  2.292873e-07  1.787791e-07   0.000991  0.000991  0.000991    0.999902        0.000827  0.999913      0.000750         0.430907
10  -0.009176    -0.010388  0.009176   0.010388  9.397685e-08  7.327530e-08   0.000534  0.000534  0.000534    0.999894        0.000917  0.999902      0.000827         0.231978
11  -0.013349    -0.008787  0.013349   0.008787  1.249507e-07  9.742608e-08   0.000615  0.000615  0.000615    0.999815        0.000483  0.999825      0.000528         0.267489
12  -0.000126    -0.000994  0.000127   0.000994  5.959719e-07  4.646891e-07   0.001449  0.001449  0.001449    0.998227        0.103959  0.998762      0.073515         0.629856
13  -0.000732    -0.002475  0.000737   0.002478  4.474449e-06  3.488802e-06   0.003736  0.003736  0.003736    0.996978        0.146656  0.998762      0.073515         1.624560
14  -0.000524    -0.001025  0.000525   0.001026  1.205569e-06  9.400018e-07   0.001666  0.001666  0.001666    0.997027        0.136063  0.998227      0.103959         0.724470
15   0.001611     0.004116 -0.001587  -0.004097  2.381727e-05  1.857072e-05   0.006386  0.006386  0.006386    0.998939        0.035704  0.993074      0.236685         2.776490
16   0.000276     0.000724 -0.000275  -0.000723  5.249365e-07  4.093016e-07   0.001121  0.001121  0.001121    0.997475        0.142004  0.996742      0.167523         0.487293
--------------------------------------------------

TRAFO:
    p_hv_mw  q_hv_mvar   p_lv_mw  q_lv_mvar    pl_mw  ql_mvar   i_hv_ka   i_lv_ka  vm_hv_pu  va_hv_degree  vm_lv_pu  va_lv_degree  loading_percent
0  0.000272   0.003925 -0.000262  -0.002925  0.00001    0.001  0.000151  0.004239  0.999950      0.000513  0.999950      0.000515         0.039344
1  0.002344   0.010808 -0.002334  -0.009808  0.00001    0.001  0.000426  0.014555  0.999843      0.000594  0.999843      0.000600         0.110612
2  0.027229   0.034292 -0.027219  -0.030292  0.00001    0.004  0.000361  0.001567  1.000000      0.000000  1.000000      0.000005         0.109468
3  0.034342   0.034593 -0.034332  -0.030593  0.00001    0.004  0.000402  0.001770  1.000000      0.000000  1.000000      0.000005         0.121862
--------------------------------------------------
